*$
* Solar Cell Macro Model
.subckt Cell V+ V-
D1 N001 V- D
R1 N001 V- 10k
R2 V+ N001 1
I1 V- N001 1m
.model D D(Is=10u Rs=1u N=5)
.ENDS
*$
